/*--------------------------------*- C++ -*----------------------------------*\
| =========                 |                                                 |
| \\      /  F ield         | OpenFOAM: The Open Source CFD Toolbox           |
|  \\    /   O peration     | Version:  v2106                                 |
|   \\  /    A nd           | Website:  www.openfoam.com                      |
|    \\/     M anipulation  |                                                 |
\*---------------------------------------------------------------------------*/
FoamFile
{
    version     2.0;
    format      ascii;
	class		IODictionary;
    location    "constant";
    object      caseSetup;
}
// * * * * * * * * * * * * * * * * * * * * * * * * * * * * * * * * * * * * * //

/* NOTE:
 * Multi-mode PTT coefficients are taken directly from Chauhan & Sasmal (2021),
 * 'the paper' henceforth, while Carreau-Yasuda coefficients were fitted to the
 * 'same' data (actually fitted to data directly from Yeleswarapu et al. 1998).
 *
 * The value for the Newtonian viscosity is set to a commonly used value, since
 * it isn't defined in the paper, but shouldn't have much impact since the cases
 * are matched by Reynolds number, and only dimensionless values are tracked.
 *
 * The dimensions for the different geometry configurations are taken as per the
 * paper, as are the Reynolds number values, although Re = 1 should be skipped
 * as it seems uninteresting.
 * The inlet/outlet length can probably be somewhat reduced, but it shouldn't
 * have too big of an impact for the 2D cases.
 */

// * * * * * * * * * * * * * * * * * Setup * * * * * * * * * * * * * * * * * //

// set pipe radius
R			1;						// any, but 1 is nice and simple

// set fluid  density
density		1060;					// blood, as per the paper

// set Reynolds number
Re			200;					// 50/200, see the paper (1 seems boring)

// set geometry
geo_config	"M2";					// M0/M1/M2, see the paper

// set (stenosis) mesh cell count
ncZ		240;						// No. cells in axial direction
ncR		60;							// No. cells in radial direction

// set rheological model
rheo_model	multiMode;				// Newtonian/CarreauYasuda/multiMode

// set case type (axisymmetric/full geometry)
case_type	"2D";					// 2D/3D

// * * * * * * * * * * * * * * * * * Logic * * * * * * * * * * * * * * * * * //

// crash by default
a			0.0;		// stenosis height
b			0.0;		// stenosis half-length
L			0.0;		// inlet/outlet length
viscosity	0.0;		// (effective) dynamic viscosity

// set dimensions based on the geometry configuration
#ifeq $geo_config "M0";
	a		#eval{ 0.5*$R };
	b		#eval{ $R };
	L		#eval{ 50*$R };
#endif
#ifeq $geo_config "M1";
	a		#eval{ 0.333*$R };
	b		#eval{ 4*$R };
	L		#eval{ 50*$R };
#endif
#ifeq $geo_config "M2";
	a		#eval{ 0.667*$R };
	b		#eval{ 4*$R };
	L		#eval{ 50*$R };
#endif

// set viscosity based on the rheological model
#ifeq $rheo_model Newtonian;
	viscosity	0.0035;				// generally used for blood, but undefined in the paper
#endif
#ifeq $rheo_model CarreauYasuda;
	// effective viscosity (see test/simset.effective_viscosity.tar.xz)
	viscosity	#eval{ 2.416254086e-01
					 - 2.328932332e-04*$Re
					 + 1.995336941e-07*sqr($Re)};
#endif
#ifeq $rheo_model multiMode;
	viscosity	0.0548;				// as per the paper
#endif

// * * * * * * * * * * * * * * * * * Compute * * * * * * * * * * * * * * * * //

// avg. inlet velocity
u_avg		#eval{ vector($Re*$viscosity / (2*$R*$density), 0, 0) };

// peak velocity, as per Hagen-Poiseuille flow solution
u_max		#eval{ 2*$[(vector) u_avg] };

// * * * * * * * * * * * * * * * * * * * * * * * * * * * * * * * * * * * * * //

#inputMode merge

// ************************************************************************* //
