/*--------------------------------*- C++ -*----------------------------------*\
| =========                 |                                                 |
| \\      /  F ield         | OpenFOAM: The Open Source CFD Toolbox           |
|  \\    /   O peration     | Version:  v2106                                 |
|   \\  /    A nd           | Website:  www.openfoam.com                      |
|    \\/     M anipulation  |                                                 |
\*---------------------------------------------------------------------------*/
FoamFile
{
    version     2.0;
    format      ascii;
    class       dictionary;
    location    "system";
    object      fvSchemes;
}
// * * * * * * * * * * * * * * * * * * * * * * * * * * * * * * * * * * * * * //

ddtSchemes
{
	//default			Crank-Nicolson 0.9;
	default				steadyState;
}

gradSchemes
{
	//default		 	cellLimited leastSquares;
	default				leastSquares;
}

divSchemes
{
	default				none;
	div(phi,U)			Gauss UMISTV leastSquares;

	div(phi,tau)		Gauss UMIST leastSquares;
	div(phi,taufirst)	Gauss UMIST leastSquares;
	div(phi,tausecond)	Gauss UMIST leastSquares;
	div(phi,tauthird)	Gauss UMIST leastSquares;
	div(phi,taufourth)	Gauss UMIST leastSquares;

	div(tau)			Gauss linear;
}

laplacianSchemes
{
	default				Gauss linear corrected;
}

interpolationSchemes
{
	default				linear;
}

snGradSchemes
{
	default				corrected;
}

wallDist
{
	method				meshWave;
}


// ************************************************************************* //
