/*--------------------------------*- C++ -*----------------------------------*\
| =========                 |                                                 |
| \\      /  F ield         | OpenFOAM: The Open Source CFD Toolbox           |
|  \\    /   O peration     | Version:  v2106                                 |
|   \\  /    A nd           | Website:  www.openfoam.com                      |
|    \\/     M anipulation  |                                                 |
\*---------------------------------------------------------------------------*/
FoamFile
{
    version     2.0;
    format      ascii;
    class       dictionary;
    location    "system";
    object      controlDict;
}
// * * * * * * * * * * * * * * * * * * * * * * * * * * * * * * * * * * * * * //

#include		"<constant>/caseSetup";

short_write		5;
long_write		100;

#ifeq $:sim_type "steady";
	application		viscoelasticSimpleFoam;
#endif
#ifeq $:sim_type "transient";
	application		viscoelasticPimpleFoam;
#endif

startFrom		startTime;

startTime		0;

stopAt			endTime;

#ifeq $:sim_type "steady";
	endTime			5000;

	deltaT			1;

	writeControl	timeStep;

	writeInterval	$long_write;
#endif
#ifeq $:sim_type "transient";
	endTime			#eval{ $:nCyc / $:freq };

	deltaT			#eval{ $:CFL * (($:R-$:a)/$:ncZ) / mag($[(vector) u_max]) };

	writeControl	adjustableRunTime;

	writeInterval	#eval{ 0.25 / $:freq };
#endif

purgeWrite		5;

writeFormat		binary;

writePrecision	6;

writeCompression false;

timeFormat		general;

timePrecision	6;

runTimeModifiable true;

adjustTimeStep	true;

maxCo			0.5;

functions
{
	// field generating stuff
	#include	"post/p_bar"
	#include	"post/u_bar"
	#include	"post/viscoelastic_wall_shear_stress"

	// sampling
	#include	"post/field_min_max"
	#include	"post/probes"
	#include	"post/single_graph"
	#include	"post/stream_line"
	#include	"post/solver_info"
	#include	"post/viscoelastic_forces"

	// images
	#include	"post/runtime_postprocessing"

	//#include	"post/time_activated_file_update"
}


// ************************************************************************* //
