/*--------------------------------*- C++ -*----------------------------------*\
| =========                 |                                                 |
| \\      /  F ield         | OpenFOAM: The Open Source CFD Toolbox           |
|  \\    /   O peration     | Version:  v2106                                 |
|   \\  /    A nd           | Website:  www.openfoam.com                      |
|    \\/     M anipulation  |                                                 |
\*---------------------------------------------------------------------------*/
FoamFile
{
    version     2.0;
    format      ascii;
    class       volVectorField;
    location    "0";
    object      U;
}
// * * * * * * * * * * * * * * * * * * * * * * * * * * * * * * * * * * * * * //

#include		"<constant>/caseSetup"

dimensions		[0 1 -1 0 0 0 0];

internalField	uniform $u_avg;

boundaryField
{
	inlet
	{
#ifeq $:sim_type "steady";
		type		fixedValue;
		value		$internalField;
#endif
#ifeq $:sim_type "transient";
		type		uniformFixedValue;
		uniformValue
		{
			type		sine;
			frequency	$:freq;
			amplitude	$:amp;
			level		$:u_avg;
			scale		(1 1 1);
		}
		value		$internalField;
#endif
	}

	outlet
	{
		type		zeroGradient;
	}

	"wall.*"
	{
		type		noSlip;
	}

	#include		"genericBCs"

}

// ************************************************************************* //
